####################################################################### 
# 
# This file contains crystal structure data downloaded from the 
# Cambridge Structural Database (CSD) hosted by the Cambridge 
# Crystallographic Data Centre (CCDC).
# 
# Full information about CCDC data access policies and citation 
# guidelines are available at http://www.ccdc.cam.ac.uk/access/V1 
# 
# Audit and citation data items may have been added by the CCDC. 
# Please retain this information to preserve the provenance of 
# this file and to allow appropriate attribution of the data. 
# 
#######################################################################
@<TRIPOS>MOLECULE
ELEVIC
    86    83     7     0     0
SMALL
USER_CHARGES
****
Generated from the CSD

@<TRIPOS>ATOM
     1 Cl1     13.9104   3.1001   5.8430   Cl        1 RES1   0.0000
     2 Cl2     14.7223   0.5415   7.4661   Cl        1 RES1   0.0000
     3 N1      15.7094   6.8320   2.9173   N.4       1 RES1   1.0000
     4 H1      16.4908   7.1565   3.0113   H         1 RES1   0.0000
     5 N2      16.0471   4.3099   4.2522   N.3       1 RES1   0.0000
     6 N3       8.6345   5.9026   0.9548   N.am      1 RES1   0.0000
     7 H3       9.3136   5.5427   0.5876   H         1 RES1   0.0000
     8 O1       7.1040   4.4553   0.2209   O.2       1 RES1   0.0000
     9 O2      12.1449   8.9807   1.7256   O.3       1 RES1   0.0000
    10 C1      15.9138   5.5401   2.1762   C.3       1 RES1   0.0000
    11 H1A     15.0521   5.1413   1.9780   H         1 RES1   0.0000
    12 H1B     16.3649   5.7167   1.3349   H         1 RES1   0.0000
    13 C2      16.7254   4.5905   2.9854   C.3       1 RES1   0.0000
    14 H2A     16.8502   3.7650   2.4924   H         1 RES1   0.0000
    15 H2B     17.5988   4.9732   3.1599   H         1 RES1   0.0000
    16 C3      15.9237   5.5427   5.0250   C.3       1 RES1   0.0000
    17 H3A     16.8053   5.9068   5.2044   H         1 RES1   0.0000
    18 H3B     15.4941   5.3551   5.8740   H         1 RES1   0.0000
    19 C4      15.1121   6.5388   4.2584   C.3       1 RES1   0.0000
    20 H4A     15.0513   7.3618   4.7675   H         1 RES1   0.0000
    21 H4B     14.2130   6.1950   4.1400   H         1 RES1   0.0000
    22 C5      16.4766   3.1803   5.0052   C.2       1 RES1   0.0000
    23 C6      15.5545   2.5162   5.7995   C.2       1 RES1   0.0000
    24 C7      15.9161   1.3747   6.4978   C.2       1 RES1   0.0000
    25 C8      17.1520   0.8889   6.4406   C.2       1 RES1   0.0000
    26 H8      17.3776   0.1327   6.9340   H         1 RES1   0.0000
    27 C9      18.1315   1.5259   5.6248   C.2       1 RES1   0.0000
    28 H9      18.9905   1.1744   5.5591   H         1 RES1   0.0000
    29 C10     17.7875   2.6852   4.9250   C.2       1 RES1   0.0000
    30 H10     18.4250   3.1254   4.4083   H         1 RES1   0.0000
    31 C11     14.8925   7.8113   2.1232   C.3       1 RES1   0.0000
    32 H11A    13.9711   7.5113   2.0999   H         1 RES1   0.0000
    33 H11B    15.2216   7.8333   1.2107   H         1 RES1   0.0000
    34 C12     14.9480   9.2130   2.7088   C.3       1 RES1   0.0000
    35 H12A    14.6305   9.1809   3.6255   H         1 RES1   0.0000
    36 H12B    15.8727   9.5053   2.7297   H         1 RES1   0.0000
    37 C13     14.1343  10.2328   1.9494   C.3       1 RES1   0.0000
    38 H13A    14.4676  11.1158   2.1709   H         1 RES1   0.0000
    39 H13B    14.2847  10.0959   1.0001   H         1 RES1   0.0000
    40 C14     12.6766  10.2109   2.1970   C.3       1 RES1   0.0000
    41 H14A    12.5020  10.3030   3.1466   H         1 RES1   0.0000
    42 H14B    12.2527  10.9519   1.7363   H         1 RES1   0.0000
    43 C15     10.8003   8.7331   1.8684   C.2       1 RES1   0.0000
    44 C16     10.3827   7.5088   1.3706   C.2       1 RES1   0.0000
    45 H16     10.9890   6.9368   0.9579   H         1 RES1   0.0000
    46 C17      9.0641   7.1522   1.4961   C.2       1 RES1   0.0000
    47 C18      8.1358   7.9735   2.0700   C.2       1 RES1   0.0000
    48 C19      8.5639   9.2130   2.5294   C.2       1 RES1   0.0000
    49 H19      7.9472   9.7926   2.9137   H         1 RES1   0.0000
    50 C20      9.8871   9.6034   2.4272   C.2       1 RES1   0.0000
    51 H20     10.1564  10.4398   2.7297   H         1 RES1   0.0000
    52 C21      7.3786   5.5190   0.8231   C.2       1 RES1   0.0000
    53 C22      6.3125   6.4197   1.3682   C.3       1 RES1   0.0000
    54 H22A     5.8499   6.8210   0.6165   H         1 RES1   0.0000
    55 H22B     5.6678   5.8654   1.8360   H         1 RES1   0.0000
    56 C23      6.7068   7.4792   2.2574   C.3       1 RES1   0.0000
    57 H23A     6.6032   7.1708   3.1710   H         1 RES1   0.0000
    58 H23B     6.1025   8.2278   2.1310   H         1 RES1   0.0000
    59 P1       6.7310   4.1024   9.0288   P.3       2 RES2   0.0000
    60 O11      5.2609   3.9399   8.8804   O.3       2 RES2   0.0000
    61 H11      4.9165   3.7007   8.1425   H         2 RES2   0.0000
    62 O21      7.1543   5.5942   9.1634   O.3       2 RES2   0.0000
    63 H21      6.5129   6.1341   9.0516   H         2 RES2   0.0000
    64 O31      7.1703   3.4811  10.4040   O.3       2 RES2   0.0000
    65 H31A     7.8174   3.8951  10.7546   H         2 RES2   0.0000
    66 O41      7.5362   3.4633   7.9396   O.2       2 RES2   0.0000
    67 H31B?    7.0048   2.6530  10.4664   H         3 RES3   0.0000
    68 P2       4.1512   2.8563   1.3061   P.3       4 RES4   0.0000
    69 O12      5.0115   3.3467   2.4447   O.co2     4 RES4  -1.0000
    70 O22      4.7178   3.5461   0.0656   O.3       4 RES4   0.0000
    71 H22      5.5023   3.8444   0.1685   H         4 RES4   0.0000
    72 O32      2.7175   3.0941   1.4258   O.co2     4 RES4   0.0000
    73 O42      4.4563   1.3612   1.0788   O.3       4 RES4   0.0000
    74 H42      3.8784   0.8618   1.4502   H         4 RES4   0.0000
    75 P3       5.0350   2.1260   5.8201   P.3       5 RES5   0.0000
    76 O13      6.4893   2.4477   5.8984   O.3       5 RES5   0.0000
    77 H13      6.7476   2.8643   6.5880   H         5 RES5   0.0000
    78 O23      4.3503   3.0197   4.9482   O.3       5 RES5   0.0000
    79 H23      4.3355   2.8389   4.1067   H         5 RES5   0.0000
    80 O33      4.9354   0.7756   5.2465   O.3       5 RES5   0.0000
    81 H33      4.9076   0.1267   5.7898   H         5 RES5   0.0000
    82 O43      4.3972   2.1630   7.2176   O.2       5 RES5   0.0000
    83 O1W      6.9683   0.7866  10.8107   O.3       6 RES6   0.0000
    84 H1WA     6.3401   0.5070  10.3156   H         6 RES6   0.0000
    85 H1WB     7.1616   1.6138  10.7546   H         6 RES6   0.0000
    86 H1WC?    7.5843   0.2535  11.0429   H         7 RES7   0.0000
@<TRIPOS>BOND
     1     1    23    1
     2     2    24    1
     3     3     4    1
     4     3    10    1
     5     3    19    1
     6     3    31    1
     7     5    13    1
     8     5    16    1
     9     5    22    1
    10     6     7    1
    11     6    46    1
    12     6    52   am
    13     8    52    2
    14     9    40    1
    15     9    43    1
    16    10    11    1
    17    10    12    1
    18    10    13    1
    19    13    14    1
    20    13    15    1
    21    16    17    1
    22    16    18    1
    23    16    19    1
    24    19    20    1
    25    19    21    1
    26    22    23    2
    27    22    29    1
    28    23    24    1
    29    24    25    2
    30    25    26    1
    31    25    27    1
    32    27    28    1
    33    27    29    2
    34    29    30    1
    35    31    32    1
    36    31    33    1
    37    31    34    1
    38    34    35    1
    39    34    36    1
    40    34    37    1
    41    37    38    1
    42    37    39    1
    43    37    40    1
    44    40    41    1
    45    40    42    1
    46    43    44    2
    47    43    50    1
    48    44    45    1
    49    44    46    1
    50    46    47    2
    51    47    48    1
    52    47    56    1
    53    48    49    1
    54    48    50    2
    55    50    51    1
    56    52    53    1
    57    53    54    1
    58    53    55    1
    59    53    56    1
    60    56    57    1
    61    56    58    1
    62    59    60    1
    63    59    62    1
    64    59    64    1
    65    59    66    2
    66    60    61    1
    67    62    63    1
    68    64    65    1
    69    68    69    1
    70    68    70    1
    71    68    72    2
    72    68    73    1
    73    70    71    1
    74    73    74    1
    75    75    76    1
    76    75    78    1
    77    75    80    1
    78    75    82    2
    79    76    77    1
    80    78    79    1
    81    80    81    1
    82    83    84    1
    83    83    85    1
@<TRIPOS>SUBSTRUCTURE
     1 RES1        1 GROUP             0 ****  ****    0  
     2 RES2       59 GROUP             0 ****  ****    0  
     3 RES3       67 GROUP             0 ****  ****    0  
     4 RES4       68 GROUP             0 ****  ****    0  
     5 RES5       75 GROUP             0 ****  ****    0  
     6 RES6       83 GROUP             0 ****  ****    0  
     7 RES7       86 GROUP             0 ****  ****    0  
@<TRIPOS>CRYSIN
   17.7250    8.4492   22.2300   90.0000   94.0500   90.0000   231     1
