####################################################################### 
# 
# This file contains crystal structure data downloaded from the 
# Cambridge Structural Database (CSD) hosted by the Cambridge 
# Crystallographic Data Centre (CCDC).
# 
# Full information about CCDC data access policies and citation 
# guidelines are available at http://www.ccdc.cam.ac.uk/access/V1 
# 
# Audit and citation data items may have been added by the CCDC. 
# Please retain this information to preserve the provenance of 
# this file and to allow appropriate attribution of the data. 
# 
#######################################################################
@<TRIPOS>MOLECULE
LIBWUS
    60    62     2     0     0
SMALL
NO_CHARGES
****
Generated from the CSD

@<TRIPOS>ATOM
     1 Cl1     -3.7762   8.3738   7.3540   Cl        1 RES1   0.0000
     2 Cl2     -5.1806   6.2124   5.6209   Cl        1 RES1   0.0000
     3 O1       4.4863  15.5978   9.3891   O.3       1 RES1   0.0000
     4 O2      10.4898  16.3866   5.6815   O.2       1 RES1   0.0000
     5 N1      -1.2512   9.5010   6.1708   N.3       1 RES1   0.0000
     6 N2       0.1675  11.7928   7.1659   N.3       1 RES1   0.0000
     7 N3       8.6363  16.1268   6.9320   N.am      1 RES1   0.0000
     8 H3       8.4238  15.4136   6.4626   H         1 RES1   0.0000
     9 C1      -3.1139   7.9637   5.8061   C.2       1 RES1   0.0000
    10 C2      -3.7452   6.9884   5.0439   C.2       1 RES1   0.0000
    11 C3      -3.2207   6.5688   3.8353   C.2       1 RES1   0.0000
    12 H3A     -3.6563   5.8980   3.3226   H         1 RES1   0.0000
    13 C4      -2.0534   7.1467   3.3940   C.2       1 RES1   0.0000
    14 H4      -1.6764   6.8650   2.5691   H         1 RES1   0.0000
    15 C5      -1.4175   8.1329   4.1316   C.2       1 RES1   0.0000
    16 H5      -0.6165   8.5201   3.7985   H         1 RES1   0.0000
    17 C6      -1.9299   8.5675   5.3535   C.2       1 RES1   0.0000
    18 C7      -1.9129  10.8021   6.3435   C.3       1 RES1   0.0000
    19 H7A     -2.8709  10.6655   6.5527   H         1 RES1   0.0000
    20 H7B     -1.8497  11.3245   5.5055   H         1 RES1   0.0000
    21 C8      -1.2459  11.5600   7.4714   C.3       1 RES1   0.0000
    22 H8A     -1.7034  12.4278   7.6038   H         1 RES1   0.0000
    23 H8B     -1.3223  11.0407   8.3109   H         1 RES1   0.0000
    24 C9       0.8320  10.5003   6.9667   C.3       1 RES1   0.0000
    25 H9A      0.7906   9.9740   7.8046   H         1 RES1   0.0000
    26 H9B      1.7845  10.6483   6.7431   H         1 RES1   0.0000
    27 C10      0.1608   9.7271   5.8480   C.3       1 RES1   0.0000
    28 H10A     0.2321  10.2363   5.0021   H         1 RES1   0.0000
    29 H10B     0.6176   8.8574   5.7239   H         1 RES1   0.0000
    30 C11      0.8095  12.5710   8.2417   C.3       1 RES1   0.0000
    31 H11A     0.8551  12.0137   9.0589   H         1 RES1   0.0000
    32 H11B     0.2488  13.3609   8.4460   H         1 RES1   0.0000
    33 C12      2.2079  13.0383   7.8852   C.3       1 RES1   0.0000
    34 H12A     2.1960  13.4529   6.9868   H         1 RES1   0.0000
    35 H12B     2.8163  12.2579   7.8543   H         1 RES1   0.0000
    36 C13      2.7345  14.0505   8.9038   C.3       1 RES1   0.0000
    37 H13A     2.0981  14.8047   8.9815   H         1 RES1   0.0000
    38 H13B     2.8115  13.6193   9.7913   H         1 RES1   0.0000
    39 C14      4.0814  14.5691   8.4757   C.3       1 RES1   0.0000
    40 H14A     4.7438  13.8334   8.4800   H         1 RES1   0.0000
    41 H14B     4.0271  14.9348   7.5577   H         1 RES1   0.0000
    42 C15      5.7162  16.1723   9.1653   C.2       1 RES1   0.0000
    43 C16      6.1215  17.1124  10.1165   C.2       1 RES1   0.0000
    44 H16      5.5564  17.3294  10.8491   H         1 RES1   0.0000
    45 C17      7.3533  17.7215   9.9786   C.2       1 RES1   0.0000
    46 H17      7.6169  18.3732  10.6181   H         1 RES1   0.0000
    47 C18      8.2159  17.4150   8.9416   C.2       1 RES1   0.0000
    48 C19      9.5972  17.9956   8.8139   C.3       1 RES1   0.0000
    49 H19A    10.2385  17.4328   9.3159   H         1 RES1   0.0000
    50 H19B     9.6107  18.9028   9.2094   H         1 RES1   0.0000
    51 C20     10.0295  18.0738   7.3488   C.3       1 RES1   0.0000
    52 H20A     9.5466  18.8188   6.9102   H         1 RES1   0.0000
    53 H20B    10.9975  18.2768   7.3091   H         1 RES1   0.0000
    54 C21      9.7641  16.8015   6.5846   C.2       1 RES1   0.0000
    55 C22      7.7831  16.4919   7.9945   C.2       1 RES1   0.0000
    56 C23      6.5326  15.8722   8.0946   C.2       1 RES1   0.0000
    57 H23      6.2488  15.2521   7.4333   H         1 RES1   0.0000
    58 O3      -0.0744  13.8227   5.2861   O.3       2 RES2   0.0000
    59 H3B      0.5968  13.9115   4.7783   H         2 RES2   0.0000
    60 H3C     -0.0623  13.1563   5.8146   H         2 RES2   0.0000
@<TRIPOS>BOND
     1     1     9    1
     2     2    10    1
     3     3    39    1
     4     3    42    1
     5     4    54    2
     6     5    17    1
     7     5    18    1
     8     5    27    1
     9     6    21    1
    10     6    24    1
    11     6    30    1
    12     7     8    1
    13     7    54   am
    14     7    55    1
    15     9    10    2
    16     9    17    1
    17    10    11    1
    18    11    12    1
    19    11    13    2
    20    13    14    1
    21    13    15    1
    22    15    16    1
    23    15    17    2
    24    18    19    1
    25    18    20    1
    26    18    21    1
    27    21    22    1
    28    21    23    1
    29    24    25    1
    30    24    26    1
    31    24    27    1
    32    27    28    1
    33    27    29    1
    34    30    31    1
    35    30    32    1
    36    30    33    1
    37    33    34    1
    38    33    35    1
    39    33    36    1
    40    36    37    1
    41    36    38    1
    42    36    39    1
    43    39    40    1
    44    39    41    1
    45    42    43    1
    46    42    56    2
    47    43    44    1
    48    43    45    2
    49    45    46    1
    50    45    47    1
    51    47    48    1
    52    47    55    2
    53    48    49    1
    54    48    50    1
    55    48    51    1
    56    51    52    1
    57    51    53    1
    58    51    54    1
    59    55    56    1
    60    56    57    1
    61    58    59    1
    62    58    60    1
@<TRIPOS>SUBSTRUCTURE
     1 RES1        1 GROUP             0 ****  ****    0  
     2 RES2       58 GROUP             0 ****  ****    0  
@<TRIPOS>CRYSIN
    7.9771   27.9145   10.6212   90.0000  105.8650   90.0000   231     1
